/*---------------------------------------------------------------------------*\
| =========                 |                                                 |
| \\      /  F ield         | OpenFOAM: The Open Source CFD Toolbox           |
|  \\    /   O peration     | Version:  2412                                  |
|   \\  /    A nd           | Website:  www.openfoam.com                      |
|    \\/     M anipulation  |                                                 |
\*---------------------------------------------------------------------------*/
Build  : _8dbc61e11c-20241220 OPENFOAM=2412 version=v2412
Arch   : "LSB;label=32;scalar=64"
Exec   : decomposePar -fields
Date   : Dec 23 2025
Time   : 10:07:01
Host   : ubuntu-linux-2404
PID    : 32167
I/O    : uncollated
Case   : /home/parallels/works/GeoChemFoam-5.1/runs/nanoPorousMedia1f/2DmicroPorousModel/multicomponentModel
nProcs : 1
trapFpe: Floating point exception trapping enabled (FOAM_SIGFPE).
fileModificationChecking : Monitoring run-time modified files using timeStampMaster (fileModificationSkew 5, maxFileModificationPolls 20)
allowSystemOperations : Allowing user-supplied system call operations

// * * * * * * * * * * * * * * * * * * * * * * * * * * * * * * * * * * * * * //
Create time



Decomposing mesh

Create mesh
Time = 0
Using dynamicCode for patch walls on field U at line 56 in "/home/parallels/works/GeoChemFoam-5.1/runs/nanoPorousMedia1f/2DmicroPorousModel/multicomponentModel/0/U/boundaryField/walls"
Using dynamicCode for patch fixedWalls_organic on field U at line 84 in "/home/parallels/works/GeoChemFoam-5.1/runs/nanoPorousMedia1f/2DmicroPorousModel/multicomponentModel/0/U/boundaryField/fixedWalls_organic"
Using dynamicCode for patch fixedWalls_inorganic on field U at line 112 in "/home/parallels/works/GeoChemFoam-5.1/runs/nanoPorousMedia1f/2DmicroPorousModel/multicomponentModel/0/U/boundaryField/fixedWalls_inorganic"
Using dynamicCode for patch fixedWalls_clay on field U at line 141 in "/home/parallels/works/GeoChemFoam-5.1/runs/nanoPorousMedia1f/2DmicroPorousModel/multicomponentModel/0/U/boundaryField/fixedWalls_clay"

Processor 0: field transfer
Processor 1: field transfer
Processor 2: field transfer
Processor 3: field transfer
Processor 4: field transfer
Processor 5: field transfer
Processor 6: field transfer
Processor 7: field transfer

End

