/*---------------------------------------------------------------------------*\
| =========                 |                                                 |
| \\      /  F ield         | OpenFOAM: The Open Source CFD Toolbox           |
|  \\    /   O peration     | Version:  2412                                  |
|   \\  /    A nd           | Website:  www.openfoam.com                      |
|    \\/     M anipulation  |                                                 |
\*---------------------------------------------------------------------------*/
Build  : _8dbc61e11c-20241220 OPENFOAM=2412 version=v2412
Arch   : "LSB;label=32;scalar=64"
Exec   : processViscosity
Date   : Dec 23 2025
Time   : 10:06:45
Host   : ubuntu-linux-2404
PID    : 32121
I/O    : uncollated
Case   : /home/parallels/works/GeoChemFoam-5.1/runs/nanoPorousMedia1f/2DmicroPorousModel/multicomponentModel
nProcs : 1
trapFpe: Floating point exception trapping enabled (FOAM_SIGFPE).
fileModificationChecking : Monitoring run-time modified files using timeStampMaster (fileModificationSkew 5, maxFileModificationPolls 20)
allowSystemOperations : Allowing user-supplied system call operations

// * * * * * * * * * * * * * * * * * * * * * * * * * * * * * * * * * * * * * //
Create time

Create mesh for time = 0

Processing wall patch: walls
Processing wall patch: fixedWalls_inorganic
Processing wall patch: fixedWalls_organic
Processing wall patch: fixedWalls_clay
nuCorrected written to 0/
